ESS_concentrado/Rede3/Line.dss
! Created by miniodss on 2015-12-14T17:50
New Line._abcn_19490172-sec Bus1=bus_3286187_34101150.1.2.3  Bus2=bus_3285915_34101150.1.2.3  Length=0.03238827 Geometry=sec-tradicional-ca-1_0awg-1kv-ca-1_0awg-1kv-ca-1_0awg-1kv-ca-2awg-1kv Units=km
New Line._abcn_19489909-sec Bus1=bus_3285915_34101150.1.2.3  Bus2=bus_34460596_34101150.1.2.3  Length=0.02236068 Geometry=sec-tradicional-ca-1_0awg-1kv-ca-1_0awg-1kv-ca-1_0awg-1kv-ca-2awg-1kv Units=km
New Line._abcn_19489758-sec Bus1=bus_34460596_34101150.1.2.3  Bus2=bus_3285743_34101150.1.2.3  Length=0.013 Geometry=sec-tradicional-ca-1_0awg-1kv-ca-1_0awg-1kv-ca-1_0awg-1kv-ca-2awg-1kv Units=km
New Line._abcn_19489755-sec Bus1=bus_3285743_34101150.1.2.3  Bus2=bus_3285709_34101150.1.2.3  Length=0.03238827 Geometry=sec-tradicional-ca-1_0awg-1kv-ca-1_0awg-1kv-ca-1_0awg-1kv-ca-2awg-1kv Units=km
New Line._an_19489723-ramal Bus1=bus_3285709_34101150.1  Bus2=bus_19489723.1  Length=0.009 Geometry=tap-duplex__2_ca-16mm2-xlpe-1kv Units=km
New Line._bn_19489724-ramal Bus1=bus_3285709_34101150.2  Bus2=bus_19489724.2  Length=0.009 Geometry=tap-duplex__2_ca-16mm2-xlpe-1kv Units=km
New Line._bcn_19489725-ramal Bus1=bus_3285709_34101150.2.3  Bus2=bus_19489725.2.3  Length=0.009 Geometry=tap-triplex__3_ca-16mm2-xlpe-1kv Units=km
New Line._abcn_19489636-ramal Bus1=bus_3285743_34101150.1.2.3  Bus2=bus_19489636.1.2.3  Length=0.032 Geometry=tap-quadruplex__4_ca-16mm2-xlpe-1kv Units=km
New Line._abcn_19489784-ramal Bus1=bus_3285743_34101150.1.2.3  Bus2=bus_19489784.1.2.3  Length=0.009 Geometry=tap-quadruplex__4_ca-16mm2-xlpe-1kv Units=km
New Line._abcn_19489756-ramal Bus1=bus_3285743_34101150.1.2.3  Bus2=bus_19489756.1.2.3  Length=0.009 Geometry=tap-quadruplex__4_ca-16mm2-xlpe-1kv Units=km
New Line._abcn_19489759-sec Bus1=bus_34460596_34101150.1.2.3  Bus2=bus_3285779_34101150.1.2.3  Length=0.02376973 Geometry=sec-tradicional-ca-1_0awg-1kv-ca-1_0awg-1kv-ca-1_0awg-1kv-ca-2awg-1kv Units=km
New Line._abcn_19489788-sec Bus1=bus_3285779_34101150.1.2.3  Bus2=bus_3285811_34101150.1.2.3  Length=0.02729501 Geometry=sec-tradicional-ca-1_0awg-1kv-ca-1_0awg-1kv-ca-1_0awg-1kv-ca-2awg-1kv Units=km
New Line._acn_19489826-ramal Bus1=bus_3285811_34101150.1.3  Bus2=bus_19489826.1.3  Length=0.008 Geometry=tap-triplex__3_ca-10mm2-xlpe-1kv Units=km
New Line._bcn_19489825-ramal Bus1=bus_3285811_34101150.2.3  Bus2=bus_19489825.2.3  Length=0.008 Geometry=tap-triplex__3_ca-16mm2-xlpe-1kv Units=km
New Line._abn_19489824-ramal Bus1=bus_3285811_34101150.1.2  Bus2=bus_19489824.1.2  Length=0.011 Geometry=tap-triplex__3_ca-10mm2-xlpe-1kv Units=km
New Line._abn_19489789-ramal Bus1=bus_3285779_34101150.1.2  Bus2=bus_19489789.1.2  Length=0.009 Geometry=tap-triplex__3_ca-16mm2-xlpe-1kv Units=km
New Line._bcn_19489791-ramal Bus1=bus_3285779_34101150.2.3  Bus2=bus_19489791.2.3  Length=0.011 Geometry=tap-triplex__3_ca-16mm2-xlpe-1kv Units=km
New Line._bcn_19489790-ramal Bus1=bus_3285779_34101150.2.3  Bus2=bus_19489790.2.3  Length=0.009 Geometry=tap-triplex__3_ca-16mm2-xlpe-1kv Units=km
New Line._abn_19489793-ramal Bus1=bus_3285779_34101150.1.2  Bus2=bus_19489793.1.2  Length=0.009 Geometry=tap-triplex__3_ca-16mm2-xlpe-1kv Units=km
New Line._bcn_19489792-ramal Bus1=bus_3285779_34101150.2.3  Bus2=bus_19489792.2.3  Length=0.011 Geometry=tap-triplex__3_ca-16mm2-xlpe-1kv Units=km
New Line._abcn_19489757-sec Bus1=bus_34460596_34101150.1.2.3  Bus2=bus_3285667_34101150.1.2.3  Length=0.01 Geometry=sec-tradicional-ca-1_0awg-1kv-ca-1_0awg-1kv-ca-1_0awg-1kv-ca-2awg-1kv Units=km
New Line._abcn_19489690-ramal Bus1=bus_3285667_34101150.1.2.3  Bus2=bus_19489690.1.2.3  Length=0.011 Geometry=tap-quadruplex__4_ca-16mm2-xlpe-1kv Units=km
New Line._abcn_19489689-ramal Bus1=bus_3285667_34101150.1.2.3  Bus2=bus_19489689.1.2.3  Length=0.009 Geometry=tap-quadruplex__4_ca-16mm2-xlpe-1kv Units=km
New Line._abn_19489910-ramal Bus1=bus_3285915_34101150.1.2  Bus2=bus_19489910.1.2  Length=0.009 Geometry=tap-triplex__3_ca-16mm2-xlpe-1kv Units=km
New Line._abn_19490174-ramal Bus1=bus_3285915_34101150.1.2  Bus2=bus_19490174.1.2  Length=0.009 Geometry=tap-triplex__3_ca-16mm2-xlpe-1kv Units=km
New Line._abcn_19490171-ramal Bus1=bus_3285915_34101150.1.2.3  Bus2=bus_19490171.1.2.3  Length=0.009 Geometry=tap-quadruplex__4_ca-16mm2-xlpe-1kv Units=km
New Line._bcn_19490170-ramal Bus1=bus_3285915_34101150.2.3  Bus2=bus_19490170.2.3  Length=0.009 Geometry=tap-triplex__3_ca-16mm2-xlpe-1kv Units=km
New Line._abcn_19490173-sec Bus1=bus_3286187_34101150.1.2.3  Bus2=bus_x37533806_34101150.1.2.3  Length=0.01612452 Geometry=sec-tradicional-ca-1_0awg-1kv-ca-1_0awg-1kv-ca-1_0awg-1kv-ca-2awg-1kv Units=km
New Line._abcn_19490283-sec Bus1=bus_x37533806_34101150.1.2.3  Bus2=bus_3286310_34101150.1.2.3  Length=0.021 Geometry=sec-tradicional-ca-1_0awg-1kv-ca-1_0awg-1kv-ca-1_0awg-1kv-ca-2awg-1kv Units=km
New Line._abcn_19490284-sec Bus1=bus_3286310_34101150.1.2.3  Bus2=bus_3286351_34101150.1.2.3  Length=0.03337664 Geometry=sec-tradicional-ca-1_0awg-1kv-ca-1_0awg-1kv-ca-1_0awg-1kv-ca-2awg-1kv Units=km
New Line._abcn_19490307-sec Bus1=bus_3286351_34101150.1.2.3  Bus2=bus_3286398_34101150.1.2.3  Length=0.03354102 Geometry=sec-tradicional-ca-1_0awg-1kv-ca-1_0awg-1kv-ca-1_0awg-1kv-ca-2awg-1kv Units=km
New Line._abn_19490353-ramal Bus1=bus_3286398_34101150.1.2  Bus2=bus_19490353.1.2  Length=0.009 Geometry=tap-triplex__3_ca-16mm2-xlpe-1kv Units=km
New Line._acn_19490356-ramal Bus1=bus_3286398_34101150.1.3  Bus2=bus_19490356.1.3  Length=0.009 Geometry=tap-triplex__3_ca-16mm2-xlpe-1kv Units=km
New Line._bcn_19490355-ramal Bus1=bus_3286398_34101150.2.3  Bus2=bus_19490355.2.3  Length=0.009 Geometry=tap-triplex__3_ca-16mm2-xlpe-1kv Units=km
New Line._acn_19490354-ramal Bus1=bus_3286398_34101150.1.3  Bus2=bus_19490354.1.3  Length=0.009 Geometry=tap-triplex__3_ca-16mm2-xlpe-1kv Units=km
New Line._abn_19490311-ramal Bus1=bus_3286351_34101150.1.2  Bus2=bus_19490311.1.2  Length=0.009 Geometry=tap-triplex__3_ca-16mm2-xlpe-1kv Units=km
New Line._abcn_19490308-ramal Bus1=bus_3286351_34101150.1.2.3  Bus2=bus_19490308.1.2.3  Length=0.009 Geometry=tap-quadruplex__4_ca-16mm2-xlpe-1kv Units=km
New Line._abcn_19490309-ramal Bus1=bus_3286351_34101150.1.2.3  Bus2=bus_19490309.1.2.3  Length=0.016 Geometry=tap-quadruplex__4_ca-16mm2-xlpe-1kv Units=km
New Line._acn_19490310-ramal Bus1=bus_3286351_34101150.1.3  Bus2=bus_19490310.1.3  Length=0.011 Geometry=tap-triplex__3_ca-16mm2-xlpe-1kv Units=km
